Version 4
SHEET 1 880 680
WIRE 48 32 0 32
WIRE 48 96 48 32
WIRE 48 208 48 176
FLAG 48 208 0
FLAG 0 32 Vin
IOPIN 0 32 In
SYMBOL voltage 48 80 R0
SYMATTR InstName V1
